/*--------------------------------*- C++ -*----------------------------------*\
  =========                 |
  \\      /  F ield         | OpenFOAM: The Open Source CFD Toolbox
   \\    /   O peration     | Website:  https://openfoam.org
    \\  /    A nd           | Version:  10
     \\/     M anipulation  |
\*---------------------------------------------------------------------------*/
FoamFile
{
    format      ascii;
    class       dictionary;
    object      blockMeshDict;
}

// * * * * * * * * * * * * * * * * * * * * * * * * * * * * * * * * * * * * * //

convertToMeters 1;

vertices
(
    ( 0 0 -0.01)
    ( 6 0 -0.01)
    ( 6 3 -0.01)
    ( 0  3 -0.01)
    ( 0 0 0)
    ( 6 0 0)
    ( 6 3 0)
    ( 0  3 0)

);

blocks
(
    hex (0 1 2 3 4 5 6 7) (36 24 1) simpleGrading (1 1 1)
);

boundary
(
    upperWall
    {
        type patch;
        faces
        (
            (3 7 6 2)         
        );
    }
    
    bottomWall
    {
        type patch;
        faces
        (         
            (1 5 4 0)
        );
    }

    inlet
    {
        type patch;
        faces
        (
            (0 4 7 3)
        );
    }

    outlet
    {
        type patch;
        faces
        (
            (2 6 5 1)
        );
    }

    symFront
    {
        type patch;
        faces
        (
            (4 5 6 7)
        );
    }

    symBack
    {
        type patch;
        faces
        (
            (0 3 2 1)
        );
    }
    
);


// ************************************************************************* //
