/*--------------------------------*- C++ -*----------------------------------*\
  =========                 |
  \\      /  F ield         | OpenFOAM: The Open Source CFD Toolbox
   \\    /   O peration     | Website:  https://openfoam.org
    \\  /    A nd           | Version:  10
     \\/     M anipulation  |
\*---------------------------------------------------------------------------*/
FoamFile
{
    format      binary;
    class       polyBoundaryMesh;
    location    "2e-05/polyMesh";
    object      boundary;
}
// * * * * * * * * * * * * * * * * * * * * * * * * * * * * * * * * * * * * * //

7
(
    upperWall
    {
        type            patch;
        nFaces          36;
        startFace       274108;
    }
    bottomWall
    {
        type            patch;
        nFaces          36;
        startFace       274144;
    }
    inlet
    {
        type            patch;
        nFaces          24;
        startFace       274180;
    }
    outlet
    {
        type            patch;
        nFaces          24;
        startFace       274204;
    }
    symFront
    {
        type            patch;
        nFaces          8125;
        startFace       274228;
    }
    symBack
    {
        type            patch;
        nFaces          8149;
        startFace       282353;
    }
    turbine
    {
        type            wall;
        inGroups        List<word> 1(wall);
        nFaces          7232;
        startFace       290502;
    }
)

// ************************************************************************* //
