/*--------------------------------*- C++ -*----------------------------------*\
  =========                 |
  \\      /  F ield         | OpenFOAM: The Open Source CFD Toolbox
   \\    /   O peration     | Website:  https://openfoam.org
    \\  /    A nd           | Version:  10
     \\/     M anipulation  |
\*---------------------------------------------------------------------------*/
FoamFile
{
    format      binary;
    class       polyBoundaryMesh;
    location    "3e-05/polyMesh";
    object      boundary;
}
// * * * * * * * * * * * * * * * * * * * * * * * * * * * * * * * * * * * * * //

7
(
    upperWall
    {
        type            patch;
        nFaces          36;
        startFace       280062;
    }
    bottomWall
    {
        type            patch;
        nFaces          36;
        startFace       280098;
    }
    inlet
    {
        type            patch;
        nFaces          24;
        startFace       280134;
    }
    outlet
    {
        type            patch;
        nFaces          24;
        startFace       280158;
    }
    symFront
    {
        type            patch;
        nFaces          8187;
        startFace       280182;
    }
    symBack
    {
        type            patch;
        nFaces          8211;
        startFace       288369;
    }
    turbine
    {
        type            wall;
        inGroups        List<word> 1(wall);
        nFaces          7188;
        startFace       296580;
    }
)

// ************************************************************************* //
