/*--------------------------------*- C++ -*----------------------------------*\
  =========                 |
  \\      /  F ield         | OpenFOAM: The Open Source CFD Toolbox
   \\    /   O peration     | Website:  https://openfoam.org
    \\  /    A nd           | Version:  10
     \\/     M anipulation  |
\*---------------------------------------------------------------------------*/
FoamFile
{
    format      binary;
    class       polyBoundaryMesh;
    location    "3e-05/polyMesh";
    object      boundary;
}
// * * * * * * * * * * * * * * * * * * * * * * * * * * * * * * * * * * * * * //

7
(
    upperWall
    {
        type            patch;
        nFaces          36;
        startFace       86619;
    }
    bottomWall
    {
        type            patch;
        nFaces          36;
        startFace       86655;
    }
    inlet
    {
        type            patch;
        nFaces          24;
        startFace       86691;
    }
    outlet
    {
        type            patch;
        nFaces          24;
        startFace       86715;
    }
    symFront
    {
        type            patch;
        nFaces          2694;
        startFace       86739;
    }
    symBack
    {
        type            patch;
        nFaces          2727;
        startFace       89433;
    }
    turbine
    {
        type            wall;
        inGroups        List<word> 1(wall);
        nFaces          7188;
        startFace       92160;
    }
)

// ************************************************************************* //
